
**** 05/10/19 19:21:34 ******* PSpice Lite (March 2016) ******* ID# 10813 ****

 ** Profile: "SCHEMATIC1-a8"  [ C:\Users\DELL\Desktop\zpl-PSpiceFiles\SCHEMATIC1\a8.sim ] 


 ****     CIRCUIT DESCRIPTION


******************************************************************************




** Creating circuit file "a8.cir" 
** WARNING: THIS AUTOMATICALLY GENERATED FILE MAY BE OVERWRITTEN BY SUBSEQUENT SIMULATIONS

*Libraries: 
* Profile Libraries :
* Local Libraries :
* From [PSPICE NETLIST] section of C:\Users\DELL\AppData\Roaming\SPB_Data\cdssetup\OrCAD_PSpice\17.2.0\PSpice.ini file:
.lib "nomd.lib" 

*Analysis directives: 
.DC LIN V_Us 1V 30V 1 
.OPTIONS ADVCONV
.PROBE64 V(alias(*)) I(alias(*)) W(alias(*)) D(alias(*)) NOISE(alias(*)) 
.INC "..\SCHEMATIC1.net" 



**** INCLUDING SCHEMATIC1.net ****
* source ZPL
V_Us         N1 0 30Vdc
R_R1         N1 N2  100 TC=0,0 
R_R2         N3 N2  200 TC=0,0 
R_R3         N4 N2  1k TC=0,0 
R_R6         N01907 N4  51 TC=0,0 
I_I1         N3 N01907 DC 1Adc  
R_R5         0 N4  2k TC=0,0 
G_G1         N3 0 N1 N2 3

**** RESUMING a8.cir ****
.END


          JOB CONCLUDED

**** 05/10/19 19:21:34 ******* PSpice Lite (March 2016) ******* ID# 10813 ****

 ** Profile: "SCHEMATIC1-a8"  [ C:\Users\DELL\Desktop\zpl-PSpiceFiles\SCHEMATIC1\a8.sim ] 


 ****     JOB STATISTICS SUMMARY


******************************************************************************



  Total job time (using Solver 1)   =        0.00
